/*--------------------------------*- C++ -*----------------------------------*\
| =========                 |                                                 |
| \\      /  F ield         | OpenFOAM: The Open Source CFD Toolbox           |
|  \\    /   O peration     | Version:  dev                                   |
|   \\  /    A nd           | Web:      www.OpenFOAM.org                      |
|    \\/     M anipulation  |                                                 |
\*---------------------------------------------------------------------------*/
FoamFile
{
    version     2.0;
    format      ascii;
    class       polyBoundaryMesh;
    location    "constant/polyMesh";
    object      boundary;
}
// * * * * * * * * * * * * * * * * * * * * * * * * * * * * * * * * * * * * * //

3
(
    x_0
    {
        type            cyclic;
        inGroups        1(cyclic);
        nFaces          1;
        startFace       19;
        matchTolerance  0.0001;
        transform       unknown;
        neighbourPatch  x_1;
    }
    x_1
    {
        type            cyclic;
        inGroups        1(cyclic);
        nFaces          1;
        startFace       20;
        matchTolerance  0.0001;
        transform       unknown;
        neighbourPatch  x_0;
    }
    walls
    {
        type            empty;
        inGroups        1(empty);
        nFaces          80;
        startFace       21;
    }
)

// ************************************************************************* //
