/*--------------------------------*- C++ -*----------------------------------*\
| =========                 |                                                 |
| \\      /  F ield         | OpenFOAM: The Open Source CFD Toolbox           |
|  \\    /   O peration     | Version:  dev                                   |
|   \\  /    A nd           | Web:      www.OpenFOAM.org                      |
|    \\/     M anipulation  |                                                 |
\*---------------------------------------------------------------------------*/
FoamFile
{
    version     2.0;
    format      ascii;
    class       dictionary;
    object      blockMeshDict;
}
// * * * * * * * * * * * * * * * * * * * * * * * * * * * * * * * * * * * * * //

convertToMeters 1;

vertices
(
	(0 0 0)
	(10 0 0)
	(10 1 0)
	(0 1 0)

	(0 0 1)
	(10 0 1)
	(10 1 1)
	(0 1 1)
);

blocks
(
    hex (0 1 2 3 4 5 6 7) (20 1 1) simpleGrading (1 1 1)
);

edges
(
);

boundary
(
    x_0
    {
        type cyclic;
	neighbourPatch x_1;
        faces
        (
            (0 3 7 4)
        );
    }

    x_1 
    {
        type cyclic;
	neighbourPatch x_0;
	faces
	(
	    (1 5 6 2)
	);
    }

    walls
    {
        type empty;
        faces
        (
	    (0 1 2 3)
            (4 7 6 5)
	    (2 6 7 3)
	    (0 4 5 1)
        );
    }
);

// ************************************************************************* //
